LTspice 24.1.7 for Windows
Circuit: Z:\home\marcosgatica\facultadUTN\dispositivosElectronicos\trabajosPracticos\tp2\simulacionDiodo1N4007Inversa.net
Start Time: Fri May 23 10:15:39 2025
solver = Normal
Maximum thread count: 12
tnom = 27
temp = 27
method = trap
.OP point found by inspection.
.step 
Total elapsed time: 0.430 seconds.

Files loaded:
Z:\home\marcosgatica\facultadUTN\dispositivosElectronicos\trabajosPracticos\tp2\simulacionDiodo1N4007Inversa.net
C:\users\marcosgatica\AppData\Local\LTspice\lib\cmp\standard.dio

