LTspice 24.1.7 for Windows
Circuit: Z:\home\marcosgatica\facultadUTN\dispositivosElectronicos\trabajosPracticos\tp2\simulacionDiodo1N4007.net
Start Time: Thu May 22 12:35:53 2025
solver = Normal
Maximum thread count: 12
tnom = 27
temp = 27
method = trap
.OP point found by inspection.
.step 
Total elapsed time: 0.192 seconds.

Files loaded:
Z:\home\marcosgatica\facultadUTN\dispositivosElectronicos\trabajosPracticos\tp2\simulacionDiodo1N4007.net
C:\users\marcosgatica\AppData\Local\LTspice\lib\cmp\standard.dio

